!- Windows Line endings 

VERSION,
    9.4.0;                    !- Version Identifier

SIMULATIONCONTROL,
    No,                       !- Do Zone Sizing Calculation
    No,                       !- Do System Sizing Calculation
    No,                       !- Do Plant Sizing Calculation
    No,                       !- Run Simulation for Sizing Periods
    Yes,                      !- Run Simulation for Weather File Run Periods
    No,                       !- Do HVAC Sizing Simulation for Sizing Periods
    1;                        !- Maximum Number of HVAC Sizing Simulation Passes

BUILDING,
    Group15_Building5_Simplified,    !- Name
    0,                        !- North Axis
    City,                     !- Terrain
    0.001,                    !- Loads Convergence Tolerance Value
    0.01,                     !- Temperature Convergence Tolerance Value
    FullExterior,             !- Solar Distribution
    100,                      !- Maximum Number of Warmup Days
    6;                        !- Minimum Number of Warmup Days

SHADOWCALCULATION,
    PolygonClipping,          !- Shading Calculation Method
    Periodic,                 !- Shading Calculation Update Frequency Method
    7,                        !- Shading Calculation Update Frequency
    15000,                    !- Maximum Figures in Shadow Overlap Calculations
    SutherlandHodgman,        !- Polygon Clipping Algorithm
    512,                      !- Pixel Counting Resolution
    SimpleSkyDiffuseModeling,    !- Sky Diffuse Modeling Algorithm
    No,                       !- Output External Shading Calculation Results
    No,                       !- Disable SelfShading Within Shading Zone Groups
    No;                       !- Disable SelfShading From Shading Zone Groups to Other Zones

SURFACECONVECTIONALGORITHM:INSIDE,
    TARP;                     !- Algorithm

SURFACECONVECTIONALGORITHM:OUTSIDE,
    TARP;                     !- Algorithm

HEATBALANCEALGORITHM,
    ConductionTransferFunction,    !- Algorithm
    200,                      !- Surface Temperature Upper Limit
    0.1,                      !- Minimum Surface Convection Heat Transfer Coefficient Value
    1000;                     !- Maximum Surface Convection Heat Transfer Coefficient Value

ZONEAIRHEATBALANCEALGORITHM,
    ThirdOrderBackwardDifference;    !- Algorithm

TIMESTEP,
    6;                        !- Number of Timesteps per Hour

RUNPERIOD,
    CustomRun,                !- Name
    3,                        !- Begin Month
    25,                       !- Begin Day of Month
    ,                         !- Begin Year
    4,                        !- End Month
    30,                       !- End Day of Month
    ,                         !- End Year
    Monday,                   !- Day of Week for Start Day
    No,                       !- Use Weather File Holidays and Special Days
    No,                       !- Use Weather File Daylight Saving Period
    Yes,                      !- Apply Weekend Holiday Rule
    Yes,                      !- Use Weather File Rain Indicators
    Yes,                      !- Use Weather File Snow Indicators
    No;                       !- Treat Weather as Actual

SCHEDULETYPELIMITS,
    Any Number,               !- Name
    ,                         !- Lower Limit Value
    ,                         !- Upper Limit Value
    Continuous,               !- Numeric Type
    Dimensionless;            !- Unit Type

SCHEDULE:COMPACT,
    Always 20,                !- Name
    Any Number,               !- Schedule Type Limits Name
    Through 12/31,            !- Field 1
    For: AllDays,             !- Field 2
    Until: 24:00,             !- Field 3
    20;                       !- Field 4

SCHEDULE:COMPACT,
    Always 26,                !- Name
    Any Number,               !- Schedule Type Limits Name
    Through 12/31,            !- Field 1
    For: AllDays,             !- Field 2
    Until: 24:00,             !- Field 3
    26;                       !- Field 4

SCHEDULE:COMPACT,
    Always 1,                 !- Name
    Any Number,               !- Schedule Type Limits Name
    Through 12/31,            !- Field 1
    For: AllDays,             !- Field 2
    Until: 24:00,             !- Field 3
    1;                        !- Field 4

SCHEDULE:COMPACT,
    Always 0,                 !- Name
    Any Number,               !- Schedule Type Limits Name
    Through 12/31,            !- Field 1
    For: AllDays,             !- Field 2
    Until: 24:00,             !- Field 3
    0;                        !- Field 4

SCHEDULE:COMPACT,
    Always 4,                 !- Name
    Any Number,               !- Schedule Type Limits Name
    Through 12/31,            !- Field 1
    For: AllDays,             !- Field 2
    Until: 24:00,             !- Field 3
    4;                        !- Field 4

MATERIAL,
    Insulation,               !- Name
    MediumRough,              !- Roughness
    0.1,                      !- Thickness
    0.04,                     !- Conductivity
    40,                       !- Density
    1470,                     !- Specific Heat
    0.9,                      !- Thermal Absorptance
    0.6,                      !- Solar Absorptance
    0.6;                      !- Visible Absorptance

MATERIAL,
    Concrete,                 !- Name
    MediumRough,              !- Roughness
    0.2,                      !- Thickness
    0.37,                     !- Conductivity
    1190,                     !- Density
    840,                      !- Specific Heat
    0.9,                      !- Thermal Absorptance
    0.6,                      !- Solar Absorptance
    0.6;                      !- Visible Absorptance

MATERIAL:NOMASS,
    ObstructionSurface,       !- Name
    MediumRough,              !- Roughness
    0.4143341,                !- Thermal Resistance
    0.9,                      !- Thermal Absorptance
    0.6,                      !- Solar Absorptance
    0.6;                      !- Visible Absorptance

WindowMaterial:Glazing,
    Clear 3mm,                !- Name
    SpectralAverage,          !- Optical Data Type
    ,                         !- Window Glass Spectral Data Set Name
    0.003,                    !- Thickness
    0.837,                    !- Solar Transmittance at Normal Incidence
    0.075,                    !- Front Side Solar Reflectance at Normal Incidence
    0.075,                    !- Back Side Solar Reflectance at Normal Incidence
    0.898,                    !- Visible Transmittance at Normal Incidence
    0.081,                    !- Front Side Visible Reflectance at Normal Incidence
    0.081,                    !- Back Side Visible Reflectance at Normal Incidence
    0,                        !- Infrared Transmittance at Normal Incidence
    0.84,                     !- Front Side Infrared Hemispherical Emissivity
    0.84,                     !- Back Side Infrared Hemispherical Emissivity
    0.9,                      !- Conductivity
    1,                        !- Dirt Correction Factor for Solar and Visible Transmittance
    No;                       !- Solar Diffusing

WindowMaterial:Glazing,
    Clear 3mm loe,            !- Name
    SpectralAverage,          !- Optical Data Type
    ,                         !- Window Glass Spectral Data Set Name
    0.003,                    !- Thickness
    0.63,                     !- Solar Transmittance at Normal Incidence
    0.22,                     !- Front Side Solar Reflectance at Normal Incidence
    0.22,                     !- Back Side Solar Reflectance at Normal Incidence
    0.85,                     !- Visible Transmittance at Normal Incidence
    0.079,                    !- Front Side Visible Reflectance at Normal Incidence
    0.079,                    !- Back Side Visible Reflectance at Normal Incidence
    0,                        !- Infrared Transmittance at Normal Incidence
    0.1,                      !- Front Side Infrared Hemispherical Emissivity
    0.84,                     !- Back Side Infrared Hemispherical Emissivity
    0.9,                      !- Conductivity
    1,                        !- Dirt Correction Factor for Solar and Visible Transmittance
    No;                       !- Solar Diffusing

WindowMaterial:Gas,
    Air 6mm,                  !- Name
    Air,                      !- Gas Type
    0.0063;                   !- Thickness

CONSTRUCTION,
    Envelope,                 !- Name
    Insulation,               !- Outside Layer
    Concrete;                 !- Layer 2

CONSTRUCTION,
    Window,                   !- Name
    Clear 3mm,                !- Outside Layer
    Air 6mm,                  !- Layer 2
    Clear 3mm,                !- Layer 3
    Air 6mm,                  !- Layer 4
    Clear 3mm loe;            !- Layer 5

CONSTRUCTION,
    EnvelopeFlipped,          !- Name
    Concrete,                 !- Outside Layer
    Insulation;               !- Layer 2

CONSTRUCTION,
    Door,                     !- Name
    ObstructionSurface;       !- Outside Layer

GLOBALGEOMETRYRULES,
    LowerLeftCorner,          !- Starting Vertex Position
    CounterClockWise,         !- Vertex Entry Direction
    Relative,                 !- Coordinate System
    Relative,                 !- Daylighting Reference Point Coordinate System
    Relative;                 !- Rectangular Surface Coordinate System

Zone,
    Flr1_Group15_Building5_Floor1_Room1_Simplified,    !- Name
    0,                        !- Direction of Relative North
    0,                        !- X Origin
    0,                        !- Y Origin
    0,                        !- Z Origin
    1,                        !- Type
    1,                        !- Multiplier
    ,                         !- Ceiling Height
    ,                         !- Volume
    ,                         !- Floor Area
    ,                         !- Zone Inside Convection Algorithm
    ,                         !- Zone Outside Convection Algorithm
    Yes;                      !- Part of Total Floor Area

Zone,
    Flr1_Group15_Building5_Floor2_Room1_Simplified,    !- Name
    0,                        !- Direction of Relative North
    0,                        !- X Origin
    0,                        !- Y Origin
    0,                        !- Z Origin
    1,                        !- Type
    1,                        !- Multiplier
    ,                         !- Ceiling Height
    ,                         !- Volume
    ,                         !- Floor Area
    ,                         !- Zone Inside Convection Algorithm
    ,                         !- Zone Outside Convection Algorithm
    Yes;                      !- Part of Total Floor Area

Zone,
    Flr2_Group15_Building5_Floor2_Room1_Simplified,    !- Name
    0,                        !- Direction of Relative North
    0,                        !- X Origin
    0,                        !- Y Origin
    0,                        !- Z Origin
    1,                        !- Type
    1,                        !- Multiplier
    ,                         !- Ceiling Height
    ,                         !- Volume
    ,                         !- Floor Area
    ,                         !- Zone Inside Convection Algorithm
    ,                         !- Zone Outside Convection Algorithm
    Yes;                      !- Part of Total Floor Area

Zone,
    Flr3_Group15_Building5_Floor2_Room1_Simplified,    !- Name
    0,                        !- Direction of Relative North
    0,                        !- X Origin
    0,                        !- Y Origin
    0,                        !- Z Origin
    1,                        !- Type
    1,                        !- Multiplier
    ,                         !- Ceiling Height
    ,                         !- Volume
    ,                         !- Floor Area
    ,                         !- Zone Inside Convection Algorithm
    ,                         !- Zone Outside Convection Algorithm
    Yes;                      !- Part of Total Floor Area

BUILDINGSURFACE:DETAILED,
    FloorNonAdiabatic_Flr1_Group15_Building5_Floor1_Room1_Simplified,    !- Name
    Floor,                    !- Surface Type
    Envelope,                 !- Construction Name
    Flr1_Group15_Building5_Floor1_Room1_Simplified,    !- Zone Name
    Ground,                   !- Outside Boundary Condition
    ,                         !- Outside Boundary Condition Object
    NoSun,                    !- Sun Exposure
    NoWind,                   !- Wind Exposure
    autocalculate,            !- View Factor to Ground
    4,                        !- Number of Vertices
    0,                        !- Vertex 1 Xcoordinate
    0,                        !- Vertex 1 Ycoordinate
    0,                        !- Vertex 1 Zcoordinate
    0,                        !- Vertex 2 Xcoordinate
    12,                       !- Vertex 2 Ycoordinate
    0,                        !- Vertex 2 Zcoordinate
    12,                       !- Vertex 3 Xcoordinate
    12,                       !- Vertex 3 Ycoordinate
    0,                        !- Vertex 3 Zcoordinate
    12,                       !- Vertex 4 Xcoordinate
    0,                        !- Vertex 4 Ycoordinate
    0;                        !- Vertex 4 Zcoordinate

BUILDINGSURFACE:DETAILED,
    SouthAdiabatic_Flr1_Group15_Building5_Floor1_Room1_Simplified,    !- Name
    Wall,                     !- Surface Type
    Envelope,                 !- Construction Name
    Flr1_Group15_Building5_Floor1_Room1_Simplified,    !- Zone Name
    Adiabatic,                !- Outside Boundary Condition
    ,                         !- Outside Boundary Condition Object
    NoSun,                    !- Sun Exposure
    NoWind,                   !- Wind Exposure
    autocalculate,            !- View Factor to Ground
    4,                        !- Number of Vertices
    0,                        !- Vertex 1 Xcoordinate
    0,                        !- Vertex 1 Ycoordinate
    0,                        !- Vertex 1 Zcoordinate
    6,                        !- Vertex 2 Xcoordinate
    0,                        !- Vertex 2 Ycoordinate
    0,                        !- Vertex 2 Zcoordinate
    6,                        !- Vertex 3 Xcoordinate
    0,                        !- Vertex 3 Ycoordinate
    3,                        !- Vertex 3 Zcoordinate
    0,                        !- Vertex 4 Xcoordinate
    0,                        !- Vertex 4 Ycoordinate
    3;                        !- Vertex 4 Zcoordinate

BUILDINGSURFACE:DETAILED,
    SouthNonAdiabatic_Flr1_Group15_Building5_Floor1_Room1_Simplified,    !- Name
    Wall,                     !- Surface Type
    Envelope,                 !- Construction Name
    Flr1_Group15_Building5_Floor1_Room1_Simplified,    !- Zone Name
    Outdoors,                 !- Outside Boundary Condition
    ,                         !- Outside Boundary Condition Object
    SunExposed,               !- Sun Exposure
    WindExposed,              !- Wind Exposure
    autocalculate,            !- View Factor to Ground
    4,                        !- Number of Vertices
    6,                        !- Vertex 1 Xcoordinate
    0,                        !- Vertex 1 Ycoordinate
    0,                        !- Vertex 1 Zcoordinate
    12,                       !- Vertex 2 Xcoordinate
    0,                        !- Vertex 2 Ycoordinate
    0,                        !- Vertex 2 Zcoordinate
    12,                       !- Vertex 3 Xcoordinate
    0,                        !- Vertex 3 Ycoordinate
    3,                        !- Vertex 3 Zcoordinate
    6,                        !- Vertex 4 Xcoordinate
    0,                        !- Vertex 4 Ycoordinate
    3;                        !- Vertex 4 Zcoordinate

BUILDINGSURFACE:DETAILED,
    EastAdiabatic_Flr1_Group15_Building5_Floor1_Room1_Simplified,    !- Name
    Wall,                     !- Surface Type
    Envelope,                 !- Construction Name
    Flr1_Group15_Building5_Floor1_Room1_Simplified,    !- Zone Name
    Adiabatic,                !- Outside Boundary Condition
    ,                         !- Outside Boundary Condition Object
    NoSun,                    !- Sun Exposure
    NoWind,                   !- Wind Exposure
    autocalculate,            !- View Factor to Ground
    4,                        !- Number of Vertices
    12,                       !- Vertex 1 Xcoordinate
    0,                        !- Vertex 1 Ycoordinate
    0,                        !- Vertex 1 Zcoordinate
    12,                       !- Vertex 2 Xcoordinate
    6,                        !- Vertex 2 Ycoordinate
    0,                        !- Vertex 2 Zcoordinate
    12,                       !- Vertex 3 Xcoordinate
    6,                        !- Vertex 3 Ycoordinate
    3,                        !- Vertex 3 Zcoordinate
    12,                       !- Vertex 4 Xcoordinate
    0,                        !- Vertex 4 Ycoordinate
    3;                        !- Vertex 4 Zcoordinate

BUILDINGSURFACE:DETAILED,
    EastNonAdiabatic_Flr1_Group15_Building5_Floor1_Room1_Simplified,    !- Name
    Wall,                     !- Surface Type
    Envelope,                 !- Construction Name
    Flr1_Group15_Building5_Floor1_Room1_Simplified,    !- Zone Name
    Outdoors,                 !- Outside Boundary Condition
    ,                         !- Outside Boundary Condition Object
    SunExposed,               !- Sun Exposure
    WindExposed,              !- Wind Exposure
    autocalculate,            !- View Factor to Ground
    4,                        !- Number of Vertices
    12,                       !- Vertex 1 Xcoordinate
    6,                        !- Vertex 1 Ycoordinate
    0,                        !- Vertex 1 Zcoordinate
    12,                       !- Vertex 2 Xcoordinate
    12,                       !- Vertex 2 Ycoordinate
    0,                        !- Vertex 2 Zcoordinate
    12,                       !- Vertex 3 Xcoordinate
    12,                       !- Vertex 3 Ycoordinate
    3,                        !- Vertex 3 Zcoordinate
    12,                       !- Vertex 4 Xcoordinate
    6,                        !- Vertex 4 Ycoordinate
    3;                        !- Vertex 4 Zcoordinate

BUILDINGSURFACE:DETAILED,
    NorthAdiabatic_Flr1_Group15_Building5_Floor1_Room1_Simplified,    !- Name
    Wall,                     !- Surface Type
    Envelope,                 !- Construction Name
    Flr1_Group15_Building5_Floor1_Room1_Simplified,    !- Zone Name
    Adiabatic,                !- Outside Boundary Condition
    ,                         !- Outside Boundary Condition Object
    NoSun,                    !- Sun Exposure
    NoWind,                   !- Wind Exposure
    autocalculate,            !- View Factor to Ground
    4,                        !- Number of Vertices
    12,                       !- Vertex 1 Xcoordinate
    12,                       !- Vertex 1 Ycoordinate
    0,                        !- Vertex 1 Zcoordinate
    3,                        !- Vertex 2 Xcoordinate
    12,                       !- Vertex 2 Ycoordinate
    0,                        !- Vertex 2 Zcoordinate
    3,                        !- Vertex 3 Xcoordinate
    12,                       !- Vertex 3 Ycoordinate
    3,                        !- Vertex 3 Zcoordinate
    12,                       !- Vertex 4 Xcoordinate
    12,                       !- Vertex 4 Ycoordinate
    3;                        !- Vertex 4 Zcoordinate

BUILDINGSURFACE:DETAILED,
    NorthNonAdiabatic_Flr1_Group15_Building5_Floor1_Room1_Simplified,    !- Name
    Wall,                     !- Surface Type
    Envelope,                 !- Construction Name
    Flr1_Group15_Building5_Floor1_Room1_Simplified,    !- Zone Name
    Outdoors,                 !- Outside Boundary Condition
    ,                         !- Outside Boundary Condition Object
    SunExposed,               !- Sun Exposure
    WindExposed,              !- Wind Exposure
    autocalculate,            !- View Factor to Ground
    4,                        !- Number of Vertices
    3,                        !- Vertex 1 Xcoordinate
    12,                       !- Vertex 1 Ycoordinate
    0,                        !- Vertex 1 Zcoordinate
    0,                        !- Vertex 2 Xcoordinate
    12,                       !- Vertex 2 Ycoordinate
    0,                        !- Vertex 2 Zcoordinate
    0,                        !- Vertex 3 Xcoordinate
    12,                       !- Vertex 3 Ycoordinate
    3,                        !- Vertex 3 Zcoordinate
    3,                        !- Vertex 4 Xcoordinate
    12,                       !- Vertex 4 Ycoordinate
    3;                        !- Vertex 4 Zcoordinate

BUILDINGSURFACE:DETAILED,
    WestAdiabatic_Flr1_Group15_Building5_Floor1_Room1_Simplified,    !- Name
    Wall,                     !- Surface Type
    Envelope,                 !- Construction Name
    Flr1_Group15_Building5_Floor1_Room1_Simplified,    !- Zone Name
    Adiabatic,                !- Outside Boundary Condition
    ,                         !- Outside Boundary Condition Object
    NoSun,                    !- Sun Exposure
    NoWind,                   !- Wind Exposure
    autocalculate,            !- View Factor to Ground
    4,                        !- Number of Vertices
    0,                        !- Vertex 1 Xcoordinate
    12,                       !- Vertex 1 Ycoordinate
    0,                        !- Vertex 1 Zcoordinate
    0,                        !- Vertex 2 Xcoordinate
    6,                        !- Vertex 2 Ycoordinate
    0,                        !- Vertex 2 Zcoordinate
    0,                        !- Vertex 3 Xcoordinate
    6,                        !- Vertex 3 Ycoordinate
    3,                        !- Vertex 3 Zcoordinate
    0,                        !- Vertex 4 Xcoordinate
    12,                       !- Vertex 4 Ycoordinate
    3;                        !- Vertex 4 Zcoordinate

BUILDINGSURFACE:DETAILED,
    WestNonAdiabatic_Flr1_Group15_Building5_Floor1_Room1_Simplified,    !- Name
    Wall,                     !- Surface Type
    Envelope,                 !- Construction Name
    Flr1_Group15_Building5_Floor1_Room1_Simplified,    !- Zone Name
    Outdoors,                 !- Outside Boundary Condition
    ,                         !- Outside Boundary Condition Object
    SunExposed,               !- Sun Exposure
    WindExposed,              !- Wind Exposure
    autocalculate,            !- View Factor to Ground
    4,                        !- Number of Vertices
    0,                        !- Vertex 1 Xcoordinate
    6,                        !- Vertex 1 Ycoordinate
    0,                        !- Vertex 1 Zcoordinate
    0,                        !- Vertex 2 Xcoordinate
    0,                        !- Vertex 2 Ycoordinate
    0,                        !- Vertex 2 Zcoordinate
    0,                        !- Vertex 3 Xcoordinate
    0,                        !- Vertex 3 Ycoordinate
    3,                        !- Vertex 3 Zcoordinate
    0,                        !- Vertex 4 Xcoordinate
    6,                        !- Vertex 4 Ycoordinate
    3;                        !- Vertex 4 Zcoordinate

BUILDINGSURFACE:DETAILED,
    RoofNonAdiabatic_Flr1_Group15_Building5_Floor1_Room1_Simplified,    !- Name
    Ceiling,                  !- Surface Type
    EnvelopeFlipped,          !- Construction Name
    Flr1_Group15_Building5_Floor1_Room1_Simplified,    !- Zone Name
    Surface,                  !- Outside Boundary Condition
    FloorNonAdiabatic_Flr1_Group15_Building5_Floor2_Room1_Simplified,    !- Outside Boundary Condition Object
    NoSun,                    !- Sun Exposure
    NoWind,                   !- Wind Exposure
    autocalculate,            !- View Factor to Ground
    4,                        !- Number of Vertices
    0,                        !- Vertex 1 Xcoordinate
    0,                        !- Vertex 1 Ycoordinate
    3,                        !- Vertex 1 Zcoordinate
    12,                       !- Vertex 2 Xcoordinate
    0,                        !- Vertex 2 Ycoordinate
    3,                        !- Vertex 2 Zcoordinate
    12,                       !- Vertex 3 Xcoordinate
    12,                       !- Vertex 3 Ycoordinate
    3,                        !- Vertex 3 Zcoordinate
    0,                        !- Vertex 4 Xcoordinate
    12,                       !- Vertex 4 Ycoordinate
    3;                        !- Vertex 4 Zcoordinate

BUILDINGSURFACE:DETAILED,
    FloorNonAdiabatic_Flr1_Group15_Building5_Floor2_Room1_Simplified,    !- Name
    Floor,                    !- Surface Type
    Envelope,                 !- Construction Name
    Flr1_Group15_Building5_Floor2_Room1_Simplified,    !- Zone Name
    Surface,                  !- Outside Boundary Condition
    RoofNonAdiabatic_Flr1_Group15_Building5_Floor1_Room1_Simplified,    !- Outside Boundary Condition Object
    NoSun,                    !- Sun Exposure
    NoWind,                   !- Wind Exposure
    autocalculate,            !- View Factor to Ground
    4,                        !- Number of Vertices
    0,                        !- Vertex 1 Xcoordinate
    0,                        !- Vertex 1 Ycoordinate
    3,                        !- Vertex 1 Zcoordinate
    0,                        !- Vertex 2 Xcoordinate
    12,                       !- Vertex 2 Ycoordinate
    3,                        !- Vertex 2 Zcoordinate
    12,                       !- Vertex 3 Xcoordinate
    12,                       !- Vertex 3 Ycoordinate
    3,                        !- Vertex 3 Zcoordinate
    12,                       !- Vertex 4 Xcoordinate
    0,                        !- Vertex 4 Ycoordinate
    3;                        !- Vertex 4 Zcoordinate

BUILDINGSURFACE:DETAILED,
    SouthAdiabatic_Flr1_Group15_Building5_Floor2_Room1_Simplified,    !- Name
    Wall,                     !- Surface Type
    Envelope,                 !- Construction Name
    Flr1_Group15_Building5_Floor2_Room1_Simplified,    !- Zone Name
    Adiabatic,                !- Outside Boundary Condition
    ,                         !- Outside Boundary Condition Object
    NoSun,                    !- Sun Exposure
    NoWind,                   !- Wind Exposure
    autocalculate,            !- View Factor to Ground
    4,                        !- Number of Vertices
    0,                        !- Vertex 1 Xcoordinate
    0,                        !- Vertex 1 Ycoordinate
    3,                        !- Vertex 1 Zcoordinate
    6,                        !- Vertex 2 Xcoordinate
    0,                        !- Vertex 2 Ycoordinate
    3,                        !- Vertex 2 Zcoordinate
    6,                        !- Vertex 3 Xcoordinate
    0,                        !- Vertex 3 Ycoordinate
    6,                        !- Vertex 3 Zcoordinate
    0,                        !- Vertex 4 Xcoordinate
    0,                        !- Vertex 4 Ycoordinate
    6;                        !- Vertex 4 Zcoordinate

BUILDINGSURFACE:DETAILED,
    SouthNonAdiabatic_Flr1_Group15_Building5_Floor2_Room1_Simplified,    !- Name
    Wall,                     !- Surface Type
    Envelope,                 !- Construction Name
    Flr1_Group15_Building5_Floor2_Room1_Simplified,    !- Zone Name
    Outdoors,                 !- Outside Boundary Condition
    ,                         !- Outside Boundary Condition Object
    SunExposed,               !- Sun Exposure
    WindExposed,              !- Wind Exposure
    autocalculate,            !- View Factor to Ground
    4,                        !- Number of Vertices
    6,                        !- Vertex 1 Xcoordinate
    0,                        !- Vertex 1 Ycoordinate
    3,                        !- Vertex 1 Zcoordinate
    12,                       !- Vertex 2 Xcoordinate
    0,                        !- Vertex 2 Ycoordinate
    3,                        !- Vertex 2 Zcoordinate
    12,                       !- Vertex 3 Xcoordinate
    0,                        !- Vertex 3 Ycoordinate
    6,                        !- Vertex 3 Zcoordinate
    6,                        !- Vertex 4 Xcoordinate
    0,                        !- Vertex 4 Ycoordinate
    6;                        !- Vertex 4 Zcoordinate

BUILDINGSURFACE:DETAILED,
    EastAdiabatic_Flr1_Group15_Building5_Floor2_Room1_Simplified,    !- Name
    Wall,                     !- Surface Type
    Envelope,                 !- Construction Name
    Flr1_Group15_Building5_Floor2_Room1_Simplified,    !- Zone Name
    Adiabatic,                !- Outside Boundary Condition
    ,                         !- Outside Boundary Condition Object
    NoSun,                    !- Sun Exposure
    NoWind,                   !- Wind Exposure
    autocalculate,            !- View Factor to Ground
    4,                        !- Number of Vertices
    12,                       !- Vertex 1 Xcoordinate
    0,                        !- Vertex 1 Ycoordinate
    3,                        !- Vertex 1 Zcoordinate
    12,                       !- Vertex 2 Xcoordinate
    6,                        !- Vertex 2 Ycoordinate
    3,                        !- Vertex 2 Zcoordinate
    12,                       !- Vertex 3 Xcoordinate
    6,                        !- Vertex 3 Ycoordinate
    6,                        !- Vertex 3 Zcoordinate
    12,                       !- Vertex 4 Xcoordinate
    0,                        !- Vertex 4 Ycoordinate
    6;                        !- Vertex 4 Zcoordinate

BUILDINGSURFACE:DETAILED,
    EastNonAdiabatic_Flr1_Group15_Building5_Floor2_Room1_Simplified,    !- Name
    Wall,                     !- Surface Type
    Envelope,                 !- Construction Name
    Flr1_Group15_Building5_Floor2_Room1_Simplified,    !- Zone Name
    Outdoors,                 !- Outside Boundary Condition
    ,                         !- Outside Boundary Condition Object