!- Windows Line endings 

VERSION,
    9.4.0;                    !- Version Identifier

SIMULATIONCONTROL,
    No,                       !- Do Zone Sizing Calculation
    No,                       !- Do System Sizing Calculation
    No,                       !- Do Plant Sizing Calculation
    No,                       !- Run Simulation for Sizing Periods
    Yes,                      !- Run Simulation for Weather File Run Periods
    No,                       !- Do HVAC Sizing Simulation for Sizing Periods
    1;                        !- Maximum Number of HVAC Sizing Simulation Passes

BUILDING,
    Group15_Building5,        !- Name
    0,                        !- North Axis
    City,                     !- Terrain
    0.001,                    !- Loads Convergence Tolerance Value
    0.01,                     !- Temperature Convergence Tolerance Value
    FullExterior,             !- Solar Distribution
    100,                      !- Maximum Number of Warmup Days
    6;                        !- Minimum Number of Warmup Days

SHADOWCALCULATION,
    PolygonClipping,          !- Shading Calculation Method
    Periodic,                 !- Shading Calculation Update Frequency Method
    30,                       !- Shading Calculation Update Frequency
    15000,                    !- Maximum Figures in Shadow Overlap Calculations
    SutherlandHodgman,        !- Polygon Clipping Algorithm
    512,                      !- Pixel Counting Resolution
    SimpleSkyDiffuseModeling,    !- Sky Diffuse Modeling Algorithm
    No,                       !- Output External Shading Calculation Results
    No,                       !- Disable SelfShading Within Shading Zone Groups
    No;                       !- Disable SelfShading From Shading Zone Groups to Other Zones

SURFACECONVECTIONALGORITHM:INSIDE,
    TARP;                     !- Algorithm

SURFACECONVECTIONALGORITHM:OUTSIDE,
    TARP;                     !- Algorithm

HEATBALANCEALGORITHM,
    ConductionTransferFunction,    !- Algorithm
    200,                      !- Surface Temperature Upper Limit
    0.1,                      !- Minimum Surface Convection Heat Transfer Coefficient Value
    1000;                     !- Maximum Surface Convection Heat Transfer Coefficient Value

ZONEAIRHEATBALANCEALGORITHM,
    ThirdOrderBackwardDifference;    !- Algorithm

TIMESTEP,
    1;                        !- Number of Timesteps per Hour

RUNPERIOD,
    CustomRun,                !- Name
    1,                        !- Begin Month
    1,                        !- Begin Day of Month
    ,                         !- Begin Year
    12,                       !- End Month
    31,                       !- End Day of Month
    ,                         !- End Year
    Monday,                   !- Day of Week for Start Day
    No,                       !- Use Weather File Holidays and Special Days
    No,                       !- Use Weather File Daylight Saving Period
    Yes,                      !- Apply Weekend Holiday Rule
    Yes,                      !- Use Weather File Rain Indicators
    Yes,                      !- Use Weather File Snow Indicators
    No;                       !- Treat Weather as Actual

MATERIAL,
    Insulation,               !- Name
    MediumRough,              !- Roughness
    0.1,                      !- Thickness
    0.04,                     !- Conductivity
    40,                       !- Density
    1470,                     !- Specific Heat
    0.9,                      !- Thermal Absorptance
    0.6,                      !- Solar Absorptance
    0.6;                      !- Visible Absorptance

MATERIAL,
    Concrete,                 !- Name
    MediumRough,              !- Roughness
    0.2,                      !- Thickness
    0.37,                     !- Conductivity
    1190,                     !- Density
    840,                      !- Specific Heat
    0.9,                      !- Thermal Absorptance
    0.6,                      !- Solar Absorptance
    0.6;                      !- Visible Absorptance

WindowMaterial:Glazing,
    Clear 3mm,                !- Name
    SpectralAverage,          !- Optical Data Type
    ,                         !- Window Glass Spectral Data Set Name
    0.003,                    !- Thickness
    0.837,                    !- Solar Transmittance at Normal Incidence
    0.075,                    !- Front Side Solar Reflectance at Normal Incidence
    0.075,                    !- Back Side Solar Reflectance at Normal Incidence
    0.898,                    !- Visible Transmittance at Normal Incidence
    0.081,                    !- Front Side Visible Reflectance at Normal Incidence
    0.081,                    !- Back Side Visible Reflectance at Normal Incidence
    0,                        !- Infrared Transmittance at Normal Incidence
    0.84,                     !- Front Side Infrared Hemispherical Emissivity
    0.84,                     !- Back Side Infrared Hemispherical Emissivity
    0.9,                      !- Conductivity
    1,                        !- Dirt Correction Factor for Solar and Visible Transmittance
    No;                       !- Solar Diffusing

WindowMaterial:Glazing,
    Clear 3mm loe,            !- Name
    SpectralAverage,          !- Optical Data Type
    ,                         !- Window Glass Spectral Data Set Name
    0.003,                    !- Thickness
    0.63,                     !- Solar Transmittance at Normal Incidence
    0.22,                     !- Front Side Solar Reflectance at Normal Incidence
    0.22,                     !- Back Side Solar Reflectance at Normal Incidence
    0.85,                     !- Visible Transmittance at Normal Incidence
    0.079,                    !- Front Side Visible Reflectance at Normal Incidence
    0.079,                    !- Back Side Visible Reflectance at Normal Incidence
    0,                        !- Infrared Transmittance at Normal Incidence
    0.1,                      !- Front Side Infrared Hemispherical Emissivity
    0.84,                     !- Back Side Infrared Hemispherical Emissivity
    0.9,                      !- Conductivity
    1,                        !- Dirt Correction Factor for Solar and Visible Transmittance
    No;                       !- Solar Diffusing

WindowMaterial:Gas,
    Air 6mm,                  !- Name
    Air,                      !- Gas Type
    0.0063;                   !- Thickness

CONSTRUCTION,
    Envelope,                 !- Name
    Insulation,               !- Outside Layer
    Concrete;                 !- Layer 2

CONSTRUCTION,
    Window,                   !- Name
    Clear 3mm,                !- Outside Layer
    Air 6mm,                  !- Layer 2
    Clear 3mm,                !- Layer 3
    Air 6mm,                  !- Layer 4
    Clear 3mm loe;            !- Layer 5

CONSTRUCTION,
    EnvelopeFlipped,          !- Name
    Concrete,                 !- Outside Layer
    Insulation;               !- Layer 2

GLOBALGEOMETRYRULES,
    LowerLeftCorner,          !- Starting Vertex Position
    CounterClockWise,         !- Vertex Entry Direction
    Relative,                 !- Coordinate System
    Relative,                 !- Daylighting Reference Point Coordinate System
    Relative;                 !- Rectangular Surface Coordinate System

Zone,
    Flr1_Group15_Building5_Floor1_Room1,    !- Name
    0,                        !- Direction of Relative North
    0,                        !- X Origin
    0,                        !- Y Origin
    0,                        !- Z Origin
    1,                        !- Type
    1,                        !- Multiplier
    ,                         !- Ceiling Height
    ,                         !- Volume
    ,                         !- Floor Area
    ,                         !- Zone Inside Convection Algorithm
    ,                         !- Zone Outside Convection Algorithm
    Yes;                      !- Part of Total Floor Area

Zone,
    Flr1_Group15_Building5_Floor2_Room1,    !- Name
    0,                        !- Direction of Relative North
    0,                        !- X Origin
    0,                        !- Y Origin
    0,                        !- Z Origin
    1,                        !- Type
    1,                        !- Multiplier
    ,                         !- Ceiling Height
    ,                         !- Volume
    ,                         !- Floor Area
    ,                         !- Zone Inside Convection Algorithm
    ,                         !- Zone Outside Convection Algorithm
    Yes;                      !- Part of Total Floor Area

Zone,
    Flr2_Group15_Building5_Floor2_Room1,    !- Name
    0,                        !- Direction of Relative North
    0,                        !- X Origin
    0,                        !- Y Origin
    0,                        !- Z Origin
    1,                        !- Type
    1,                        !- Multiplier
    ,                         !- Ceiling Height
    ,                         !- Volume
    ,                         !- Floor Area
    ,                         !- Zone Inside Convection Algorithm
    ,                         !- Zone Outside Convection Algorithm
    Yes;                      !- Part of Total Floor Area

Zone,
    Flr3_Group15_Building5_Floor2_Room1,    !- Name
    0,                        !- Direction of Relative North
    0,                        !- X Origin
    0,                        !- Y Origin
    0,                        !- Z Origin
    1,                        !- Type
    1,                        !- Multiplier
    ,                         !- Ceiling Height
    ,                         !- Volume
    ,                         !- Floor Area
    ,                         !- Zone Inside Convection Algorithm
    ,                         !- Zone Outside Convection Algorithm
    Yes;                      !- Part of Total Floor Area

BuildingSurface:Detailed,
    Flr1_Group15_Building5_Floor1_Room1..Face0,    !- Name
    Floor,                    !- Surface Type
    Envelope,                 !- Construction Name
    Flr1_Group15_Building5_Floor1_Room1,    !- Zone Name
    Ground,                   !- Outside Boundary Condition
    ,                         !- Outside Boundary Condition Object
    NoSun,                    !- Sun Exposure
    NoWind,                   !- Wind Exposure
    autocalculate,            !- View Factor to Ground
    6,                        !- Number of Vertices
    148,                      !- Vertex 1 Xcoordinate
    148,                      !- Vertex 1 Ycoordinate
    0,                        !- Vertex 1 Zcoordinate
    148,                      !- Vertex 2 Xcoordinate
    140,                      !- Vertex 2 Ycoordinate
    0,                        !- Vertex 2 Zcoordinate
    140,                      !- Vertex 3 Xcoordinate
    140,                      !- Vertex 3 Ycoordinate
    0,                        !- Vertex 3 Zcoordinate
    140,                      !- Vertex 4 Xcoordinate
    132,                      !- Vertex 4 Ycoordinate
    0,                        !- Vertex 4 Zcoordinate
    132,                      !- Vertex 5 Xcoordinate
    132,                      !- Vertex 5 Ycoordinate
    0,                        !- Vertex 5 Zcoordinate
    132,                      !- Vertex 6 Xcoordinate
    148,                      !- Vertex 6 Ycoordinate
    0;                        !- Vertex 6 Zcoordinate

BuildingSurface:Detailed,
    Flr1_Group15_Building5_Floor1_Room1..Face1,    !- Name
    Wall,                     !- Surface Type
    Envelope,                 !- Construction Name
    Flr1_Group15_Building5_Floor1_Room1,    !- Zone Name
    Adiabatic,                !- Outside Boundary Condition
    ,                         !- Outside Boundary Condition Object
    NoSun,                    !- Sun Exposure
    NoWind,                   !- Wind Exposure
    autocalculate,            !- View Factor to Ground
    4,                        !- Number of Vertices
    148,                      !- Vertex 1 Xcoordinate
    148,                      !- Vertex 1 Ycoordinate
    3,                        !- Vertex 1 Zcoordinate
    148,                      !- Vertex 2 Xcoordinate
    148,                      !- Vertex 2 Ycoordinate
    0,                        !- Vertex 2 Zcoordinate
    144,                      !- Vertex 3 Xcoordinate
    148,                      !- Vertex 3 Ycoordinate
    0,                        !- Vertex 3 Zcoordinate
    144,                      !- Vertex 4 Xcoordinate
    148,                      !- Vertex 4 Ycoordinate
    3;                        !- Vertex 4 Zcoordinate

BuildingSurface:Detailed,
    Flr1_Group15_Building5_Floor1_Room1..Face2,    !- Name
    Wall,                     !- Surface Type
    Envelope,                 !- Construction Name
    Flr1_Group15_Building5_Floor1_Room1,    !- Zone Name
    Outdoors,                 !- Outside Boundary Condition
    ,                         !- Outside Boundary Condition Object
    SunExposed,               !- Sun Exposure
    WindExposed,              !- Wind Exposure
    Autocalculate,            !- View Factor to Ground
    4,                        !- Number of Vertices
    144,                      !- Vertex 1 Xcoordinate
    148,                      !- Vertex 1 Ycoordinate
    3,                        !- Vertex 1 Zcoordinate
    144,                      !- Vertex 2 Xcoordinate
    148,                      !- Vertex 2 Ycoordinate
    0,                        !- Vertex 2 Zcoordinate
    140,                      !- Vertex 3 Xcoordinate
    148,                      !- Vertex 3 Ycoordinate
    0,                        !- Vertex 3 Zcoordinate
    140,                      !- Vertex 4 Xcoordinate
    148,                      !- Vertex 4 Ycoordinate
    3;                        !- Vertex 4 Zcoordinate

BuildingSurface:Detailed,
    Flr1_Group15_Building5_Floor1_Room1..Face3,    !- Name
    Wall,                     !- Surface Type
    Envelope,                 !- Construction Name
    Flr1_Group15_Building5_Floor1_Room1,    !- Zone Name
    Adiabatic,                !- Outside Boundary Condition
    ,                         !- Outside Boundary Condition Object
    NoSun,                    !- Sun Exposure
    NoWind,                   !- Wind Exposure
    autocalculate,            !- View Factor to Ground
    4,                        !- Number of Vertices
    140,                      !- Vertex 1 Xcoordinate
    148,                      !- Vertex 1 Ycoordinate
    3,                        !- Vertex 1 Zcoordinate
    140,                      !- Vertex 2 Xcoordinate
    148,                      !- Vertex 2 Ycoordinate
    0,                        !- Vertex 2 Zcoordinate
    132,                      !- Vertex 3 Xcoordinate
    148,                      !- Vertex 3 Ycoordinate
    0,                        !- Vertex 3 Zcoordinate
    132,                      !- Vertex 4 Xcoordinate
    148,                      !- Vertex 4 Ycoordinate
    3;                        !- Vertex 4 Zcoordinate

BuildingSurface:Detailed,
    Flr1_Group15_Building5_Floor1_Room1..Face4,    !- Name
    Wall,                     !- Surface Type
    Envelope,                 !- Construction Name
    Flr1_Group15_Building5_Floor1_Room1,    !- Zone Name
    Outdoors,                 !- Outside Boundary Condition
    ,                         !- Outside Boundary Condition Object
    SunExposed,               !- Sun Exposure
    WindExposed,              !- Wind Exposure
    Autocalculate,            !- View Factor to Ground
    4,                        !- Number of Vertices
    132,                      !- Vertex 1 Xcoordinate
    148,                      !- Vertex 1 Ycoordinate
    3,                        !- Vertex 1 Zcoordinate
    132,                      !- Vertex 2 Xcoordinate
    148,                      !- Vertex 2 Ycoordinate
    0,                        !- Vertex 2 Zcoordinate
    132,                      !- Vertex 3 Xcoordinate
    140,                      !- Vertex 3 Ycoordinate
    0,                        !- Vertex 3 Zcoordinate
    132,                      !- Vertex 4 Xcoordinate
    140,                      !- Vertex 4 Ycoordinate
    3;                        !- Vertex 4 Zcoordinate

BuildingSurface:Detailed,
    Flr1_Group15_Building5_Floor1_Room1..Face5,    !- Name
    Wall,                     !- Surface Type
    Envelope,                 !- Construction Name
    Flr1_Group15_Building5_Floor1_Room1,    !- Zone Name
    Adiabatic,                !- Outside Boundary Condition
    ,                         !- Outside Boundary Condition Object
    NoSun,                    !- Sun Exposure
    NoWind,                   !- Wind Exposure
    autocalculate,            !- View Factor to Ground
    4,                        !- Number of Vertices
    132,                      !- Vertex 1 Xcoordinate
    140,                      !- Vertex 1 Ycoordinate
    3,                        !- Vertex 1 Zcoordinate
    132,                      !- Vertex 2 Xcoordinate
    140,                      !- Vertex 2 Ycoordinate
    0,                        !- Vertex 2 Zcoordinate
    132,                      !- Vertex 3 Xcoordinate
    132,                      !- Vertex 3 Ycoordinate
    0,                        !- Vertex 3 Zcoordinate
    132,                      !- Vertex 4 Xcoordinate
    132,                      !- Vertex 4 Ycoordinate
    3;                        !- Vertex 4 Zcoordinate

BuildingSurface:Detailed,
    Flr1_Group15_Building5_Floor1_Room1..Face6,    !- Name
    Wall,                     !- Surface Type
    Envelope,                 !- Construction Name
    Flr1_Group15_Building5_Floor1_Room1,    !- Zone Name
    Adiabatic,                !- Outside Boundary Condition
    ,                         !- Outside Boundary Condition Object
    NoSun,                    !- Sun Exposure
    NoWind,                   !- Wind Exposure
    autocalculate,            !- View Factor to Ground
    4,                        !- Number of Vertices
    132,                      !- Vertex 1 Xcoordinate
    132,                      !- Vertex 1 Ycoordinate
    3,                        !- Vertex 1 Zcoordinate
    132,                      !- Vertex 2 Xcoordinate
    132,                      !- Vertex 2 Ycoordinate
    0,                        !- Vertex 2 Zcoordinate
    140,                      !- Vertex 3 Xcoordinate
    132,                      !- Vertex 3 Ycoordinate
    0,                        !- Vertex 3 Zcoordinate
    140,                      !- Vertex 4 Xcoordinate
    132,                      !- Vertex 4 Ycoordinate
    3;                        !- Vertex 4 Zcoordinate

BuildingSurface:Detailed,
    Flr1_Group15_Building5_Floor1_Room1..Face7,    !- Name
    Wall,                     !- Surface Type
    Envelope,                 !- Construction Name
    Flr1_Group15_Building5_Floor1_Room1,    !- Zone Name
    Outdoors,                 !- Outside Boundary Condition
    ,                         !- Outside Boundary Condition Object
    SunExposed,               !- Sun Exposure
    WindExposed,              !- Wind Exposure
    Autocalculate,            !- View Factor to Ground
    4,                        !- Number of Vertices
    140,                      !- Vertex 1 Xcoordinate
    132,                      !- Vertex 1 Ycoordinate
    3,                        !- Vertex 1 Zcoordinate
    140,                      !- Vertex 2 Xcoordinate
    132,                      !- Vertex 2 Ycoordinate
    0,                        !- Vertex 2 Zcoordinate
    140,                      !- Vertex 3 Xcoordinate
    140,                      !- Vertex 3 Ycoordinate
    0,                        !- Vertex 3 Zcoordinate
    140,                      !- Vertex 4 Xcoordinate
    140,                      !- Vertex 4 Ycoordinate
    3;                        !- Vertex 4 Zcoordinate

BuildingSurface:Detailed,
    Flr1_Group15_Building5_Floor1_Room1..Face8,    !- Name
    Wall,                     !- Surface Type
    Envelope,                 !- Construction Name
    Flr1_Group15_Building5_Floor1_Room1,    !- Zone Name
    Outdoors,                 !- Outside Boundary Condition
    ,                         !- Outside Boundary Condition Object
    SunExposed,               !- Sun Exposure
    WindExposed,              !- Wind Exposure
    Autocalculate,            !- View Factor to Ground
    4,                        !- Number of Vertices
    140,                      !- Vertex 1 Xcoordinate
    140,                      !- Vertex 1 Ycoordinate
    3,                        !- Vertex 1 Zcoordinate
    140,                      !- Vertex 2 Xcoordinate
    140,                      !- Vertex 2 Ycoordinate
    0,                        !- Vertex 2 Zcoordinate
    148,                      !- Vertex 3 Xcoordinate
    140,                      !- Vertex 3 Ycoordinate
    0,                        !- Vertex 3 Zcoordinate
    148,                      !- Vertex 4 Xcoordinate
    140,                      !- Vertex 4 Ycoordinate
    3;                        !- Vertex 4 Zcoordinate

BuildingSurface:Detailed,
    Flr1_Group15_Building5_Floor1_Room1..Face9,    !- Name
    Wall,                     !- Surface Type
    Envelope,                 !- Construction Name
    Flr1_Group15_Building5_Floor1_Room1,    !- Zone Name
    Adiabatic,                !- Outside Boundary Condition
    ,                         !- Outside Boundary Condition Object
    NoSun,                    !- Sun Exposure
    NoWind,                   !- Wind Exposure
    autocalculate,            !- View Factor to Ground
    4,                        !- Number of Vertices
    148,                      !- Vertex 1 Xcoordinate
    140,                      !- Vertex 1 Ycoordinate
    3,                        !- Vertex 1 Zcoordinate
    148,                      !- Vertex 2 Xcoordinate
    140,                      !- Vertex 2 Ycoordinate
    0,                        !- Vertex 2 Zcoordinate
    148,                      !- Vertex 3 Xcoordinate
    148,                      !- Vertex 3 Ycoordinate
    0,                        !- Vertex 3 Zcoordinate
    148,                      !- Vertex 4 Xcoordinate
    148,                      !- Vertex 4 Ycoordinate
    3;                        !- Vertex 4 Zcoordinate

BuildingSurface:Detailed,
    Flr1_Group15_Building5_Floor1_Room1..Face10,    !- Name
    Ceiling,                  !- Surface Type
    EnvelopeFlipped,          !- Construction Name
    Flr1_Group15_Building5_Floor1_Room1,    !- Zone Name
    Surface,                  !- Outside Boundary Condition
    Flr1_Group15_Building5_Floor2_Room1..Face0,    !- Outside Boundary Condition Object
    NoSun,                    !- Sun Exposure
    NoWind,                   !- Wind Exposure
    autocalculate,            !- View Factor to Ground
    6,                        !- Number of Vertices
    148,                      !- Vertex 1 Xcoordinate
    140,                      !- Vertex 1 Ycoordinate
    3,                        !- Vertex 1 Zcoordinate
    148,                      !- Vertex 2 Xcoordinate
    148,                      !- Vertex 2 Ycoordinate
    3,                        !- Vertex 2 Zcoordinate
    132,                      !- Vertex 3 Xcoordinate
    148,                      !- Vertex 3 Ycoordinate
    3,                        !- Vertex 3 Zcoordinate
    132,                      !- Vertex 4 Xcoordinate
    132,                      !- Vertex 4 Ycoordinate
    3,                        !- Vertex 4 Zcoordinate
    140,                      !- Vertex 5 Xcoordinate
    132,                      !- Vertex 5 Ycoordinate
    3,                        !- Vertex 5 Zcoordinate
    140,                      !- Vertex 6 Xcoordinate
    140,                      !- Vertex 6 Ycoordinate
    3;                        !- Vertex 6 Zcoordinate

BuildingSurface:Detailed,
    Flr1_Group15_Building5_Floor2_Room1..Face0,    !- Name
    Floor,                    !- Surface Type
    Envelope,                 !- Construction Name
    Flr1_Group15_Building5_Floor2_Room1,    !- Zone Name
    Surface,                  !- Outside Boundary Condition
    Flr1_Group15_Building5_Floor1_Room1..Face10,    !- Outside Boundary Condition Object
    NoSun,                    !- Sun Exposure
    NoWind,                   !- Wind Exposure
    autocalculate,            !- View Factor to Ground
    6,                        !- Number of Vertices
    132,                      !- Vertex 1 Xcoordinate
    148,                      !- Vertex 1 Ycoordinate
    3,                        !- Vertex 1 Zcoordinate
    148,                      !- Vertex 2 Xcoordinate
    148,                      !- Vertex 2 Ycoordinate
    3,                        !- Vertex 2 Zcoordinate
    148,                      !- Vertex 3 Xcoordinate
    140,                      !- Vertex 3 Ycoordinate
    3,                        !- Vertex 3 Zcoordinate
    140,                      !- Vertex 4 Xcoordinate
    140,                      !- Vertex 4 Ycoordinate
    3,                        !- Vertex 4 Zcoordinate
    140,                      !- Vertex 5 Xcoordinate
    132,                      !- Vertex 5 Ycoordinate
    3,                        !- Vertex 5 Zcoordinate
    132,                      !- Vertex 6 Xcoordinate
    132,                      !- Vertex 6 Ycoordinate
    3;                        !- Vertex 6 Zcoordinate

BuildingSurface:Detailed,
    Flr1_Group15_Building5_Floor2_Room1..Face1,    !- Name
    Wall,                     !- Surface Type
    Envelope,                 !- Construction Name
    Flr1_Group15_Building5_Floor2_Room1,    !- Zone Name
    Outdoors,                 !- Outside Boundary Condition
    ,                         !- Outside Boundary Condition Object
    SunExposed,               !- Sun Exposure
    WindExposed,              !- Wind Exposure
    Autocalculate,            !- View Factor to Ground
    4,                        !- Number of Vertices
    132,                      !- Vertex 1 Xcoordinate
    148,                      !- Vertex 1 Ycoordinate
    6,                        !- Vertex 1 Zcoordinate
    132,                      !- Vertex 2 Xcoordinate
    148,                      !- Vertex 2 Ycoordinate
    3,                        !- Vertex 2 Zcoordinate
    132,                      !- Vertex 3 Xcoordinate
    140,                      !- Vertex 3 Ycoordinate
    3,                        !- Vertex 3 Zcoordinate
    132,                      !- Vertex 4 Xcoordinate
    140,                      !- Vertex 4 Ycoordinate
    6;                        !- Vertex 4 Zcoordinate

BuildingSurface:Detailed,
    Flr1_Group15_Building5_Floor2_Room1..Face2,    !- Name
    Wall,                     !- Surface Type
    Envelope,                 !- Construction Name
    Flr1_Group15_Building5_Floor2_Room1,    !- Zone Name
    Adiabatic,                !- Outside Boundary Condition
    ,                         !- Outside Boundary Condition Object
    NoSun,                    !- Sun Exposure
    NoWind,                   !- Wind Exposure
    autocalculate,            !- View Factor to Ground
    4,                        !- Number of Vertices
    132,                      !- Vertex 1 Xcoordinate
    140,                      !- Vertex 1 Ycoordinate
    6,                        !- Vertex 1 Zcoordinate
    132,                      !- Vertex 2 Xcoordinate
    140,                      !- Vertex 2 Ycoordinate
    3,                        !- Vertex 2 Zcoordinate
    132,                      !- Vertex 3 Xcoordinate
    132,                      !- Vertex 3 Ycoordinate
    3,                        !- Vertex 3 Zcoordinate
    132,                      !- Vertex 4 Xcoordinate
    132,                      !- Vertex 4 Ycoordinate
    6;                        !- Vertex 4 Zcoordinate

BuildingSurface:Detailed,
    Flr1_Group15_Building5_Floor2_Room1..Face3,    !- Name
    Wall,                     !- Surface Type
    Envelope,                 !- Construction Name
    Flr1_Group15_Building5_Floor2_Room1,    !- Zone Name
    Adiabatic,                !- Outside Boundary Condition
    ,                         !- Outside Boundary Condition Object
    NoSun,                    !- Sun Exposure
    NoWind,                   !- Wind Exposure
    autocalculate,            !- View Factor to Ground
    4,                        !- Number of Vertices
    132,                      !- Vertex 1 Xcoordinate
    132,                      !- Vertex 1 Ycoordinate
    6,                        !- Vertex 1 Zcoordinate
    132,                      !- Vertex 2 Xcoordinate
    132,                      !- Vertex 2 Ycoordinate
    3,                        !- Vertex 2 Zcoordinate
    140,                      !- Vertex 3 Xcoordinate
    132,                      !- Vertex 3 Ycoordinate
    3,                        !- Vertex 3 Zcoordinate
    140,                      !- Vertex 4 Xcoordinate
    132,                      !- Vertex 4 Ycoordinate
    6;                        !- Vertex 4 Zcoordinate

BuildingSurface:Detailed,
    Flr1_Group15_Building5_Floor2_Room1..Face4,    !- Name
    Wall,                     !- Surface Type
    Envelope,                 !- Construction Name
    Flr1_Group15_Building5_Floor2_Room1,    !- Zone Name
    Outdoors,                 !- Outside Boundary Condition
    ,                         !- Outside Boundary Condition Object
    SunExposed,               !- Sun Exposure
    WindExposed,              !- Wind Exposure
    Autocalculate,            !- View Factor to Ground
    4,                        !- Number of Vertices
    140,                      !- Vertex 1 Xcoordinate
    132,                      !- Vertex 1 Ycoordinate
    6,                        !- Vertex 1 Zcoordinate
    140,                      !- Vertex 2 Xcoordinate